
**** 09/28/21 23:37:29 ******* PSpice Lite (March 2016) ******* ID# 10813 ****

 ** Profile: "SCHEMATIC1-CASE2_F_400kHz_SIM"  [ C:\Users\elvis\Documents\CSUN\2021-2022\Fall-2021\ECE442L\Lab 2\CMOS-Two-Input-NAND-G


 ****     CIRCUIT DESCRIPTION


******************************************************************************




** Creating circuit file "CASE2_F_400kHz_SIM.cir" 
** WARNING: THIS AUTOMATICALLY GENERATED FILE MAY BE OVERWRITTEN BY SUBSEQUENT SIMULATIONS

*Libraries: 
* Profile Libraries :
* Local Libraries :
.LIB "../../../ece442l_elvischino-islas_lab_2_case_2_f_400khz_pspice_circuit-pspicefiles/ece442l_elvischino-islas_lab_2_case_2_f_40"
+ "0khz_pspice_circuit.lib" 
* From [PSPICE NETLIST] section of C:\SPB_Data\cdssetup\OrCAD_PSpice\17.2.0\PSpice.ini file:
----------------------------$
ERROR(ORPSIM-16276): Can't find library
.lib "nomd.lib" 

*Analysis directives: 
.TRAN  0 7.5us 0 1ns 
.OPTIONS ADVCONV
.PROBE64 V(alias(*)) I(alias(*)) W(alias(*)) D(alias(*)) NOISE(alias(*)) 
.INC "..\SCHEMATIC1.net" 



**** INCLUDING SCHEMATIC1.net ****
* source ECE442L_ELVISCHINO-ISLAS_LAB_2_CASE_2_F_400KHZ_PSPICE_CIRCUIT
V_V1         N00348 0 5Vdc
V_V2         N00795 0  
+PULSE 5V 0V 0 0.25us 0.25us 1us 2.5us
V_V3         N00381 0  
+PULSE 5V 0V 0 0.25us 0.25us 1us 2.5us
M_M1         N00191 N00795 0 0 MbreakN1           
M_M2         N00137 N00381 N00191 N00191 MbreakN1           
M_M3         N00137 N00795 N00348 N00348 MbreakP1           
M_M4         N00137 N00381 N00348 N00348 MbreakP1           

**** RESUMING CASE2_F_400kHz_SIM.cir ****
.END
