
**** 09/29/21 05:25:15 ******* PSpice Lite (March 2016) ******* ID# 10813 ****

 ** Profile: "SCHEMATIC1-G3_LAB2_ELVIS_SQ_CASE_2_SIM"  [ C:\Users\elvis\Documents\CSUN\2021-2022\Fall-2021\ECE442L\Lab2\CMOS-Two-Inpu


 ****     CIRCUIT DESCRIPTION


******************************************************************************




** Creating circuit file "G3_LAB2_ELVIS_SQ_CASE_2_SIM.cir" 
** WARNING: THIS AUTOMATICALLY GENERATED FILE MAY BE OVERWRITTEN BY SUBSEQUENT SIMULATIONS

*Libraries: 
* Profile Libraries :
* Local Libraries :
.LIB "../../../g3_lab2_elvis_sq_case2-pspicefiles/g3_lab2_elvis_sq_case2.lib" 
* From [PSPICE NETLIST] section of C:\Users\elvis\AppData\Roaming\SPB_Data\cdssetup\OrCAD_PSpice\17.2.0\PSpice.ini file:
------------------------------------------------------------------------------$
ERROR(ORPSIM-16276): Can't find library
.lib "nomd.lib" 

*Analysis directives: 
.TRAN  0 15us 0 1ns 
.OPTIONS ADVCONV
.PROBE64 V(alias(*)) I(alias(*)) W(alias(*)) D(alias(*)) NOISE(alias(*)) 
.INC "..\SCHEMATIC1.net" 



**** INCLUDING SCHEMATIC1.net ****
* source G3_LAB2_ELVIS_SQ_CASE2
V_V2         N03217 0  
+PULSE 5V 0V 0 0.25us 0.25us 1us 2.5us
V_V3         N03309 0  
+PULSE 5V 0V 0 0.50us 0.50us 2us 5us
V_V1         N03177 0 5Vdc
M_M1         N03401 N03217 0 0 MbreakN1           
M_M2         N03297 N03309 N03401 0 MbreakN1           
M_M3         N03297 N03217 N03177 N03177 MbreakP1           
M_M4         N03297 N03309 N03177 N03177 MbreakP1           

**** RESUMING G3_LAB2_ELVIS_SQ_CASE_2_SIM.cir ****
.END
