
**** 09/29/21 00:12:22 ******* PSpice Lite (March 2016) ******* ID# 10813 ****

 ** Profile: "SCHEMATIC1-G3_LAB2_ELVIS_SQ_CASE_2_SIM"  [ C:\Users\elvis\Documents\CSUN\2021-2022\Fall-2021\ECE442L\Lab2\CMOS-Two-Inpu


 ****     CIRCUIT DESCRIPTION


******************************************************************************




** Creating circuit file "G3_LAB2_ELVIS_SQ_CASE_2_SIM.cir" 
** WARNING: THIS AUTOMATICALLY GENERATED FILE MAY BE OVERWRITTEN BY SUBSEQUENT SIMULATIONS

*Libraries: 
* Profile Libraries :
* Local Libraries :
* From [PSPICE NETLIST] section of C:\Users\elvis\AppData\Roaming\SPB_Data\cdssetup\OrCAD_PSpice\17.2.0\PSpice.ini file:
.lib "nomd.lib" 

*Analysis directives: 
.TRAN  0 7.5us 0 1ns 
.OPTIONS ADVCONV
.PROBE64 V(alias(*)) I(alias(*)) W(alias(*)) D(alias(*)) NOISE(alias(*)) 
.INC "..\SCHEMATIC1.net" 



**** INCLUDING SCHEMATIC1.net ****
* source G3_LAB2_ELVIS_SQ_CASE2
V_V2         N03217 0  
+PULSE 5V 0V 0 0.25us 0.25us 1us 2.5us
M_M3         N03297 N03217 N03177 N03177 MbreakP1           
M_M1         N03401 N03217 0 0 MbreakN1           
M_M2         N03297 N03309 N03401 N03401 MbreakN1           
M_M4         N03297 N03309 N03177 N03177 MbreakP1           
V_V3         N03309 0  
+PULSE 5V 0V 0 0.25us 0.25us 1us 2.5us
V_V1         N03177 0 5Vdc

**** RESUMING G3_LAB2_ELVIS_SQ_CASE_2_SIM.cir ****
.END

ERROR(ORPSIM-15113): Model MbreakP1 used by M_M3 is undefined

ERROR(ORPSIM-15113): Model MbreakN1 used by M_M1 is undefined

ERROR(ORPSIM-15113): Model MbreakN1 used by M_M2 is undefined

ERROR(ORPSIM-15113): Model MbreakP1 used by M_M4 is undefined
