
**** 09/29/21 04:29:08 ******* PSpice Lite (March 2016) ******* ID# 10813 ****

 ** Profile: "SCHEMATIC1-G3_LAB2_ELVIS_SQ_CASE_2_SIM"  [ C:\Users\elvis\Documents\CSUN\2021-2022\Fall-2021\ECE442L\Lab2\CMOS-Two-Inpu


 ****     CIRCUIT DESCRIPTION


******************************************************************************




** Creating circuit file "G3_LAB2_ELVIS_SQ_CASE_2_SIM.cir" 
** WARNING: THIS AUTOMATICALLY GENERATED FILE MAY BE OVERWRITTEN BY SUBSEQUENT SIMULATIONS

*Libraries: 
* Profile Libraries :
* Local Libraries :
.LIB "../../../g3_lab2_elvis_sq_case2-pspicefiles/g3_lab2_elvis_sq_case2.lib" 
* From [PSPICE NETLIST] section of C:\Users\elvis\AppData\Roaming\SPB_Data\cdssetup\OrCAD_PSpice\17.2.0\PSpice.ini file:
.lib "nomd.lib" 

*Analysis directives: 
.TRAN  0 15us 0 1ns 
.OPTIONS ADVCONV
.PROBE64 V(alias(*)) I(alias(*)) W(alias(*)) D(alias(*)) NOISE(alias(*)) 
.INC "..\SCHEMATIC1.net" 



**** INCLUDING SCHEMATIC1.net ****
* source G3_LAB2_ELVIS_SQ_CASE2
V_V2         N03217 0  
+PULSE 5V 0V 0 0.25us 0.25us 1us 2.5us
V_V3         N03309 0  
+PULSE 5V 0V 0 0.50us 0.50us 2us 5us
V_V1         N03177 0 5Vdc
M_M1         N03401 N03217 0 0 MbreakN1           
M_M2         N03297 N03309 N03401 0 MbreakN1           
M_M3         N03297 N03217 N03177 N03177 MbreakP1           
M_M4         N03297 N03309 N03177 N03177 MbreakP1           

**** RESUMING G3_LAB2_ELVIS_SQ_CASE_2_SIM.cir ****
.END

**** 09/29/21 04:29:08 ******* PSpice Lite (March 2016) ******* ID# 10813 ****

 ** Profile: "SCHEMATIC1-G3_LAB2_ELVIS_SQ_CASE_2_SIM"  [ C:\Users\elvis\Documents\CSUN\2021-2022\Fall-2021\ECE442L\Lab2\CMOS-Two-Inpu


 ****     MOSFET MODEL PARAMETERS


******************************************************************************




               MbreakN1        MbreakP1        
               NMOS            PMOS            
       LEVEL    1               1            
           L   10.000000E-06   10.000000E-06 
           W   30.000000E-06   60.000000E-06 
         VTO    2              -1.5          
          KP  111.000000E-06   55.000000E-06 
       GAMMA    0               0            
         PHI     .6              .6          
      LAMBDA     .01             .04         
          IS   16.640000E-12   16.640000E-12 
          JS    0               0            
          PB     .8              .8          
        PBSW     .8              .8          
         CBD    2.000000E-12    4.000000E-12 
         CBS    2.000000E-12    4.000000E-12 
          CJ    0               0            
        CJSW    0               0            
        CGSO  100.000000E-15  200.000000E-15 
        CGDO  100.000000E-15  200.000000E-15 
        CGBO    0               0            
         TOX    1.200000E-06    1.200000E-06 
          XJ    0               0            
       UCRIT   10.000000E+03   10.000000E+03 
      DIOMOD    1               1            
         VFB    0               0            
        LETA    0               0            
        WETA    0               0            
          U0    0               0            
        TEMP    0               0            
         VDD    5               5            
       XPART    0               0            


**** 09/29/21 04:29:08 ******* PSpice Lite (March 2016) ******* ID# 10813 ****

 ** Profile: "SCHEMATIC1-G3_LAB2_ELVIS_SQ_CASE_2_SIM"  [ C:\Users\elvis\Documents\CSUN\2021-2022\Fall-2021\ECE442L\Lab2\CMOS-Two-Inpu


 ****     INITIAL TRANSIENT SOLUTION       TEMPERATURE =   27.000 DEG C


******************************************************************************



 NODE   VOLTAGE     NODE   VOLTAGE     NODE   VOLTAGE     NODE   VOLTAGE


(N03177)    5.0000 (N03217)    5.0000 (N03297) 86.65E-09 (N03309)    5.0000     

(N03401) 43.32E-09 




    VOLTAGE SOURCE CURRENTS
    NAME         CURRENT

    V_V2         0.000E+00
    V_V3         0.000E+00
    V_V1        -4.328E-11

    TOTAL POWER DISSIPATION   2.16E-10  WATTS



          JOB CONCLUDED

**** 09/29/21 04:29:08 ******* PSpice Lite (March 2016) ******* ID# 10813 ****

 ** Profile: "SCHEMATIC1-G3_LAB2_ELVIS_SQ_CASE_2_SIM"  [ C:\Users\elvis\Documents\CSUN\2021-2022\Fall-2021\ECE442L\Lab2\CMOS-Two-Inpu


 ****     JOB STATISTICS SUMMARY


******************************************************************************



  License check-out time            =       24.16
  Total job time (using Solver 1)   =         .14
